Version 4
SHEET 1 2624 1128
WIRE -464 48 -464 16
WIRE -336 48 -336 16
WIRE -336 160 -336 128
WIRE -224 160 -336 160
WIRE -96 160 -160 160
WIRE -16 160 -96 160
WIRE -336 192 -336 160
WIRE -736 272 -784 272
WIRE -608 272 -656 272
WIRE -464 272 -464 128
WIRE -464 272 -544 272
WIRE -384 272 -464 272
WIRE -464 400 -464 272
WIRE -336 400 -336 288
WIRE -336 528 -336 480
WIRE -272 528 -336 528
WIRE -160 528 -208 528
WIRE -336 560 -336 528
WIRE -464 688 -464 480
WIRE -336 688 -336 640
WIRE -160 688 -160 528
FLAG -336 688 0
FLAG -336 16 Vdd
FLAG -464 688 0
FLAG -464 16 Vdd
FLAG -160 688 0
FLAG 80 112 0
FLAG 80 32 Vdd
FLAG -16 160 Vout
FLAG -784 272 Vin
FLAG 208 112 0
FLAG 208 32 Vin
FLAG -336 160 Drain
FLAG -464 272 Gate
FLAG -336 528 Source
FLAG -96 240 0
SYMBOL nmos -384 192 R0
SYMATTR InstName M1
SYMATTR Value VN2222_RIIL
SYMBOL Res -352 384 R0
SYMATTR InstName Rs1
SYMATTR Value {RS1_val}
SYMBOL Res -352 32 R0
SYMATTR InstName Rd
SYMATTR Value {RD_val}
SYMBOL Res -352 544 R0
SYMATTR InstName Rs2
SYMATTR Value {RS2_val}
SYMBOL Res -480 32 R0
SYMATTR InstName R1
SYMATTR Value {R1_val}
SYMBOL Res -480 384 R0
SYMATTR InstName R2
SYMATTR Value {R2_val}
SYMBOL Cap -208 512 R90
WINDOW 0 0 32 VBottom 2
WINDOW 3 32 32 VTop 2
SYMATTR InstName Cs
SYMATTR Value {Cs_val}
SYMATTR SpiceLine V=al}\
SYMBOL Voltage 80 16 R0
SYMATTR InstName V1
SYMATTR Value 12
SYMBOL Cap -544 256 R90
WINDOW 0 0 32 VBottom 2
WINDOW 3 32 32 VTop 2
SYMATTR InstName Cin
SYMATTR Value {Cin_val}
SYMBOL Cap -160 144 R90
WINDOW 0 0 32 VBottom 2
WINDOW 3 32 32 VTop 2
SYMATTR InstName Cout
SYMATTR Value {Cout_val}
SYMBOL Voltage 208 16 R0
SYMATTR InstName V2
SYMATTR Value SINE(0 2m 1k)
SYMBOL Res -112 144 R0
SYMATTR InstName Rin_Osiloskop
SYMATTR Value 1000k
SYMBOL Res -640 256 R90
WINDOW 0 0 56 VBottom 2
WINDOW 3 32 56 VTop 2
SYMATTR InstName Rout_Sumber
SYMATTR Value 50
TEXT 88 208 Left 2 !* --- Parameter Ekstraksi Silikon ---\n.param my_VTO = 1.529\n.param my_KP = 31.9m\n.param my_LAMBDA = 0.0234\n* --- Parameter Komponen E24 ---\n.param RD_val = 1600\n.param RS1_val = 82\n.param RS2_val = 430\n.param R1_val = 91k\n.param R2_val = 39k\n* --- Parameter Kapasitor (Initial) ---\n.param Cin_val = 10u\n.param Cout_val = 10u\n.param Cs_val = 100u\n* --- Model MOSFET Level 1 ---\n.model VN2222_RIIL NMOS(Level=1 VTO={my_VTO} KP={my_KP} LAMBDA={my_LAMBDA})\n.tran 10m
